/*--------------------------------*- C++ -*----------------------------------*\
| =========                 |                                                 |
| \\      /  F ield         | OpenFOAM: The Open Source CFD Toolbox           |
|  \\    /   O peration     | Version:  2412                                  |
|   \\  /    A nd           | Website:  www.openfoam.com                      |
|    \\/     M anipulation  |                                                 |
\*---------------------------------------------------------------------------*/
FoamFile
{
    version     2.0;
    format      ascii;
    arch        "LSB;label=32;scalar=64";
    class       extendedFeatureEdgeMesh;
    location    "constant/extendedFeatureEdgeMesh";
    object      buildings.extendedFeatureEdgeMesh;
}
// * * * * * * * * * * * * * * * * * * * * * * * * * * * * * * * * * * * * * //

// points

26323
(
(341.675 124.558 58.205)
(337.643 109.011 58.205)
(346.947 124.289 58.205)
(341.675 124.558 54.1363)
(293.296 45.4276 53.4316)
(293.296 45.4276 58.205)
(296.552 44.3817 58.205)
(296.552 44.3817 53.3862)
(-129.103 181.849 64.4025)
(-194.166 155.092 64.4495)
(-214.772 173.505 64.4495)
(-130.32 78.1565 63.553)
(-140.193 -35.8125 69.2275)
(-142.211 -33.7665 69.2275)
(-183.619 124.51 63.521)
(-224.817 162.354 61.7887)
(-182.436 124.592 63.521)
(-295.388 81.7308 63.521)
(46.5836 236.126 70.452)
(-142.222 66.2117 63.553)
(-199.375 -3.12759 62.805)
(-134.212 3.79154 69.1685)
(-148.551 -23.191 69.2277)
(-126.216 3.78643 69.1685)
(-123.563 4.40652 69.1685)
(-129.272 -65.0861 68.4015)
(42.3216 248.248 70.364)
(43.8198 246.217 70.364)
(85.874 190.35 69.6647)
(80.6966 195.033 69.6647)
(98.4699 202.005 69.754)
(-135.085 -41.9336 76.3765)
(98.1345 191.509 69.754)
(102.946 198.099 69.754)
(104.632 198.84 67.0685)
(-128.318 51.9366 68.4015)
(34.3076 247.677 70.364)
(92.2887 207.785 69.754)
(95.4148 204.401 69.754)
(58.9824 153.506 69.6647)
(59.6551 158.638 69.6647)
(38.6558 256.38 68.4015)
(19.7248 272.89 64.4025)
(-27.9103 266.784 64.4025)
(-142.576 210.615 64.4495)
(16.6065 109.303 69.6647)
(-61.931 252.219 64.4025)
(-155.874 240.333 64.4495)
(-101.16 89.6186 68.4015)
(-103.182 87.1583 68.4015)
(-95.9226 67.304 68.4015)
(-114.765 18.8841 69.1515)
(-115.725 15.2701 69.1515)
(-103.452 40.4888 69.0898)
(88.75 200.255 69.754)
(-113.134 203.027 64.4025)
(-151.689 200.678 64.4495)
(-164.861 -6.29922 68.4015)
(-204.152 1.09461 63.553)
(-124.296 21.2637 69.1515)
(-150.806 -0.31397 68.4015)
(-138.556 6.86771 68.4015)
(-187.141 128.785 61.7887)
(-107.731 77.8556 68.4015)
(-93.4285 102.758 68.4015)
(-128.264 -31.7377 76.3765)
(-197.699 1.66061 63.553)
(-200.675 -0.370858 63.553)
(-153.206 -4.29408 68.4015)
(42.2455 232.185 69.5252)
(39.1148 234.853 69.5252)
(40.6981 236.785 69.5252)
(48.2011 230.798 70.381)
(50.313 232.875 70.381)
(-195.606 5.08895 63.553)
(-103.274 47.2316 68.4015)
(51.6448 231.717 70.381)
(-48.5434 152.88 68.4015)
(-117.75 37.5399 68.4015)
(-106.143 32.3364 69.1625)
(-159.912 -16.8791 68.4015)
(-217.321 73.7099 63.521)
(-207.605 10.6155 63.521)
(-204.724 13.7275 63.521)
(-200.317 18.9299 63.521)
(-144.253 79.7507 63.553)
(-138.838 85.746 63.553)
(-142.754 -31.2492 69.2275)
(74.7944 188.725 69.6647)
(-126.232 0.270187 69.1685)
(-141.336 -6.87118 69.234)
(-140.548 -5.46514 69.234)
(40.2834 242.03 70.364)
(45.25 246.019 70.452)
(-6.1635 191.561 68.4015)
(-157.422 63.4425 63.553)
(-122.572 52.3762 68.4015)
(-132.263 -40.2384 76.3765)
(-130.818 -31.3177 69.2275)
(-127.317 -34.6906 76.3765)
(-189.646 9.34591 62.805)
(-248 61.0915 63.521)
(-117.807 14.5041 69.1515)
(0.600775 198.093 68.4015)
(40.9896 241.092 70.452)
(-118.339 51.6751 68.4015)
(-106.719 43.7418 68.4015)
(14.8082 217.698 68.4015)
(56.2484 149.752 69.6647)
(-193.604 3.63352 62.805)
(-186.064 6.23342 62.805)
(-145.719 61.7228 63.553)
(-153.124 -22.225 69.2277)
(-106.639 54.6049 62.7075)
(-106.447 55.3202 62.7075)
(-112.75 46.7501 68.4015)
(-231.043 56.4373 63.521)
(-34.3645 74.8941 72.4183)
(-32.1801 72.1754 72.4183)
(-208.424 4.87007 63.553)
(-206.829 8.2764 63.553)
(102.614 196.563 69.754)
(-92.7388 45.2737 69.0898)
(-94.0959 47.3272 69.0445)
(18.8361 222.173 68.4015)
(92.6766 196.51 69.754)
(92.7976 194.774 69.754)
(-285.079 93.508 63.521)
(-284.428 93.4978 63.521)
(-198.206 2.84766 63.553)
(-198.723 97.2288 63.521)
(-117.53 21.4613 69.1515)
(-103.343 29.5963 69.1625)
(-132.62 6.26 69.1685)
(95.4659 189.933 69.754)
(-133.75 7.7563 68.4015)
(-179.267 170.099 64.4495)
(-115.211 29.3369 69.1625)
(-109.812 35.2333 69.1625)
(-120.07 12.303 69.1515)
(-47.7091 59.194 73.1262)
(-45.6084 57.1324 73.1262)
(-113.529 202.578 64.4025)
(-219.75 70.2502 63.521)
(-221.237 67.5705 63.521)
(-224.713 63.446 63.521)
(-91.2126 46.6965 69.0445)
(-88.6441 41.908 69.0898)
(-90.233 38.1903 69.0898)
(-130.72 11.341 69.1685)
(-153.381 -5.61968 68.4015)
(-93.8474 100.488 68.4015)
(-103.048 24.9908 69.1625)
(-47.7627 54.7641 72.232)
(-47.193 55.2035 73.1262)
(-50.2604 57.2532 73.1262)
(-147.806 47.9754 68.4015)
(-150.421 1.37694 68.4015)
(-117.75 37.2473 68.4015)
(49.8886 229.152 70.381)
(-123.265 26.3463 68.4015)
(-121.503 25.3187 68.4015)
(-122.383 14.5162 69.1515)
(-105.23 20.6138 69.1625)
(-95.6455 47.5922 69.0898)
(-95.5356 33.2405 69.0898)
(-39.926 64.9048 72.4183)
(-41.3444 65.3107 72.4183)
(43.8083 139.682 69.6647)
(-200.97 5.66379 63.553)
(-200.301 7.29936 63.553)
(-143.153 -9.67246 69.234)
(-152.577 -3.77838 68.4015)
(-121.646 24.9198 69.1515)
(-54.7997 47.5796 72.232)
(-55.0347 47.8578 72.232)
(26.7846 242.72 68.4015)
(45.2337 236.236 69.5252)
(23.5356 227.749 68.4015)
(-32.5493 163.031 68.4015)
(-134.008 -27.4379 69.2275)
(-149.975 -18.4165 69.2277)
(-110.4 44.3995 68.4015)
(-86.0235 57.0828 69.0445)
(-82.9654 55.8536 69.0445)
(-210.859 7.02187 63.521)
(88.75 204.759 69.754)
(34.5618 241.722 70.364)
(-117.75 35.25 68.4015)
(-146.552 -20.3453 69.2277)
(-140.616 -11.1234 69.234)
(-11.2154 185.96 68.4015)
(-232.063 47.4726 63.521)
(-189.019 160.984 64.4495)
(-252.835 65.2985 63.521)
(-91.2614 54.2698 69.0445)
(-139.05 -9.43787 69.234)
(-130.583 1.77606 69.1685)
(-108.64 42.6399 68.4015)
(-205.847 87.5687 63.521)
(-138.286 -24.403 69.2275)
(-105.39 55.9443 62.7075)
(-55.4014 51.495 72.232)
(-139.373 -35.1447 69.2275)
(-138.801 -35.1096 69.2275)
(-101.58 49.9945 68.4015)
(-127.478 -0.958588 69.1685)
(-136.209 -5.16977 69.234)
(-134.373 3.93511 69.1685)
(-139.666 -2.6181 69.234)
(-126.806 8.2873 69.1685)
(-143.919 1.35501 68.4015)
(-130.395 -30.8951 69.2275)
(-170.08 -29.0193 68.4015)
(-125.633 53.3207 68.4015)
(-146.508 50.025 68.4015)
(-224.817 162.354 49.8275)
(-295.388 81.7308 49.5495)
(-129.272 -65.0861 49.6309)
(104.632 198.84 52.1171)
(19.7248 272.89 52.1905)
(-27.9103 266.784 51.9281)
(-61.931 252.219 51.2804)
(-155.874 240.333 50.2759)
(-214.772 173.505 49.8748)
(9.67196 112.333 69.6647)
(-134.085 221.314 64.4495)
(-167.384 131.161 64.4025)
(-177.146 119.879 63.521)
(-374.559 172.982 72.55)
(-406.737 180.417 72.0905)
(-358.445 190.288 72.55)
(-332.524 114.422 65.0775)
(-316.205 247.733 72.55)
(-231.131 229.251 65.0775)
(-243.433 279.337 65.0775)
(-246.29 297.566 62.072)
(-238.786 291.221 62.072)
(-276.896 305.968 65.0775)
(-293.686 289.398 65.0775)
(-304.607 298.644 65.0775)
(-278.695 272.708 72.55)
(-313.302 255.683 72.55)
(-398.416 173.017 72.0905)
(-334.066 208.633 72.55)
(-345.747 232.747 72.0905)
(-299.657 249.58 72.55)
(-261.791 265.8 65.0775)
(-290.249 289.749 65.0775)
(-274.373 276.312 72.55)
(-277.621 268.822 72.55)
(-313.791 253.268 72.55)
(-258.802 268.314 65.0775)
(-363.914 184.414 72.55)
(-282.248 284.25 72.55)
(-281.343 273.126 72.55)
(-356.107 183.219 72.55)
(-285.435 295.948 65.0775)
(-266.506 291.793 72.55)
(-327.324 215.271 72.55)
(-331.478 212.577 72.55)
(-293.747 278.271 72.55)
(-268.121 264.488 65.0775)
(-257.997 262.25 65.0775)
(-261.832 257.75 65.0775)
(-291.353 280.186 72.55)
(-378.248 160.25 72.55)
(-375.247 160.25 72.55)
(-352.108 186.146 72.55)
(-266.19 259.591 65.0775)
(-266.504 259.952 65.0775)
(-246.09 284.32 65.0775)
(-244.534 284.478 65.0775)
(-306.6 260.349 72.55)
(-324.417 234.801 72.55)
(-322.877 229.727 72.55)
(-323.845 235.844 72.55)
(-385.348 161.396 72.55)
(-379.785 167.37 72.55)
(-290.635 254.518 72.55)
(-288.792 258.168 72.55)
(-254.893 287.477 65.0775)
(-286.754 259.75 72.55)
(-296.576 274.983 72.55)
(-283.754 259.75 72.55)
(-348.354 235.883 72.0905)
(-327.173 237.886 72.0905)
(-299.25 241.326 70.0748)
(-316.641 225.283 72.55)
(-261.602 276.652 65.0775)
(-302.236 241.759 72.55)
(-277.835 291.798 72.55)
(-281.697 297.205 69.6077)
(-275.269 299.233 69.6077)
(-278.125 301.45 69.6077)
(-371.145 166.208 72.55)
(-369.607 169.692 72.55)
(-298.315 267.86 72.2245)
(-296.919 267.004 72.2245)
(-295.83 269.384 72.2245)
(-324.523 219.176 72.55)
(-377.393 197.217 72.0905)
(-372.269 203.07 72.0905)
(-380.559 157.137 72.55)
(-379.18 159.205 72.55)
(-311.243 231.75 72.55)
(-282.105 290.415 72.55)
(-274.221 298.025 72.55)
(-280.241 288.773 72.55)
(-395.126 170.091 72.0905)
(-345.864 243.622 72.0905)
(-336.449 236.667 72.0905)
(-361.539 215.228 72.0905)
(-332.524 114.422 50.0746)
(-231.131 229.251 49.8595)
(-243.433 279.337 49.9499)
(-238.786 291.221 49.9245)
(-246.29 297.566 49.8955)
(-276.896 305.968 49.8659)
(-304.607 298.644 49.8637)
(-406.737 180.417 49.8254)
(-263.609 288.307 72.55)
(-289.549 251.46 70.0748)
(-299.25 246.754 70.0748)
(78.8746 -26.9062 64.839)
(21.3976 -59.2308 64.839)
(16.0138 -49.728 64.839)
(30.0971 -77.3693 64.839)
(54.6765 -120.8 64.839)
(68.6229 -126.904 64.839)
(101.696 -85.6593 64.839)
(111.088 -102.253 64.839)
(100.168 -109.171 64.839)
(86.1362 -58.1676 64.839)
(105.699 -105.332 64.839)
(30.0971 -77.3693 50.6303)
(54.6765 -120.8 50.6009)
(68.6229 -126.904 50.645)
(111.422 -102.844 50.7754)
(78.8746 -26.9062 50.6922)
(73.4991 -17.4144 50.7917)
(16.0138 -49.728 50.2809)
(21.3976 -59.2308 50.4192)
(73.4991 -17.4144 64.839)
(111.422 -102.844 61.359)
(-63.3441 -194.834 56.288)
(-52.3963 -206.476 56.288)
(-24.0397 -226.642 56.288)
(4.86492 -187.907 56.288)
(-36.2391 -158.026 56.288)
(-63.3441 -194.834 48.799)
(-52.3963 -206.476 48.9579)
(-24.0397 -226.642 49.285)
(4.86492 -187.907 49.4225)
(-36.2391 -158.026 49.0149)
(-27.1815 -254.381 56.8185)
(12.6116 -284.587 56.8185)
(22.204 -271.591 56.8185)
(-18.0559 -241.986 56.8185)
(-18.0559 -241.986 48.954)
(-27.1815 -254.381 48.9926)
(12.6116 -284.587 49.0059)
(22.204 -271.591 49.0614)
(389.535 -67.5346 81.7933)
(384.402 -74.6897 53.591)
(384.402 -74.6897 53.2744)
(397.457 -84.1407 81.7933)
(439.725 -11.2769 84.668)
(442.291 -13.1927 84.668)
(430.867 -41.2141 81.7933)
(472.751 28.25 84.6575)
(470.245 28.25 84.6575)
(471.442 32.8707 84.6575)
(474.627 48.3274 81.7933)
(494.763 49.0624 81.7933)
(485.448 35.9023 81.7933)
(482.1 31.1708 81.7933)
(404.443 -46.75 81.7933)
(386.245 -73.987 81.7933)
(386.684 -76.3416 81.7933)
(406.692 -71.0208 81.7933)
(404.184 -74.5846 81.7933)
(416.666 -39.2144 84.663)
(414.615 -32.5681 81.7933)
(419.413 -41.326 84.663)
(414.973 -32.8649 81.7933)
(417.715 -45.0088 84.663)
(414.867 -43.072 84.663)
(411.127 -39.1444 81.7933)
(413.23 -36.7409 81.7933)
(441.198 -15.956 84.668)
(474.348 30.9187 84.6575)
(407.816 -58.2807 84.644)
(404.215 -57.2329 84.644)
(406.238 -54.2491 84.644)
(477.728 24.9937 81.7933)
(418.198 -27.5735 81.7933)
(479.395 55.0708 58.565)
(481.744 58.392 58.565)
(480.912 55.6577 81.7933)
(483.93 56.8254 81.7933)
(485.949 36.6091 81.7933)
(408.906 -55.8213 84.644)
(437.472 -14.9715 84.668)
(437.256 -14.5549 84.668)
(437.25 -14.75 84.668)
(494.763 49.0624 53.4555)
(481.744 58.392 53.4528)
(418.198 -27.5735 53.505)
(397.457 -84.1407 53.4458)
(430.867 -41.2141 53.1059)
(-5.83192 378.093 51.8305)
(28.317 349.603 64.8222)
(35.056 357.62 64.8222)
(0.914842 386.122 64.8222)
(-5.83192 378.093 64.8222)
(28.317 349.603 51.8985)
(35.056 357.62 51.9055)
(0.914842 386.122 51.8889)
(245.567 391.201 53.9052)
(255.788 387.687 69.0425)
(263.336 410.787 69.0425)
(252.883 414.229 69.0425)
(245.567 391.201 69.0425)
(255.788 387.687 53.9134)
(263.336 410.787 54.03)
(252.883 414.229 53.8795)
(215.549 412.144 53.3882)
(215.549 412.144 68.7824)
(218.874 417.213 68.7824)
(224.232 434.341 68.7824)
(214.157 443.784 68.7824)
(204.967 415.304 68.7824)
(224.345 440.591 68.7824)
(218.874 417.213 53.4929)
(224.232 434.341 53.6632)
(224.345 440.591 53.7437)
(214.157 443.784 53.5881)
(204.967 415.304 53.2129)
(41.7738 478.219 64.4675)
(32.9085 486.394 64.4675)
(3.05776 454.224 64.4675)
(11.9228 446.06 64.4675)
(41.7738 478.219 52.0946)
(32.9085 486.394 52.0851)
(3.05776 454.224 52.0494)
(11.9228 446.06 52.0853)
(125.468 446.718 52.8498)
(113.474 427.888 65.4699)
(123.474 421.556 65.4699)
(135.475 440.396 65.4699)
(125.468 446.718 65.4699)
(113.474 427.888 52.3304)
(123.474 421.556 52.5271)
(135.475 440.396 52.6883)
(43.8889 353.946 51.9378)
(54.7622 355.505 64.7598)
(57.788 334.613 64.7598)
(43.8889 353.946 64.7598)
(46.9147 333.053 51.8917)
(57.788 334.613 51.9267)
(54.7622 355.505 52.2796)
(46.9147 333.053 64.7598)
(14.7897 384.728 51.7977)
(14.7897 384.728 64.659)
(31.7025 370.356 64.659)
(38.7183 378.559 64.659)
(21.8054 392.931 64.659)
(31.7025 370.356 51.9343)
(38.7183 378.559 52.1732)
(21.8054 392.931 51.8513)
(121.622 385.694 52.3607)
(121.622 385.694 67.6055)
(131.862 379.69 67.6055)
(148.489 430.021 67.6055)
(158.814 423.83 67.6055)
(131.862 379.69 52.5935)
(158.814 423.83 52.7546)
(148.489 430.021 52.604)
(52.2094 443.121 51.8495)
(48.1851 438.323 64.758)
(40.231 429.394 64.758)
(35.8087 424.129 64.758)
(47.8311 414.105 64.758)
(52.1753 419.279 64.758)
(59.5532 428.081 64.758)
(63.9597 433.335 64.758)
(52.2094 443.121 64.758)
(48.1851 438.323 51.8853)
(40.231 429.394 51.8528)
(35.8087 424.129 51.8495)
(47.8311 414.105 52.0015)
(52.1753 419.279 51.841)
(59.5532 428.081 51.9122)
(63.9597 433.335 51.9427)
(129.952 375.904 52.6411)
(120.309 381.557 67.6875)
(107.09 359.783 67.6875)
(116.856 354.366 67.6875)
(129.952 375.904 67.6875)
(120.309 381.557 52.3084)
(107.09 359.783 52.3205)
(116.856 354.366 52.57)
(-12.6793 408.185 60.6135)
(-1.20011 398.302 60.6135)
(5.97472 406.576 60.6135)
(-5.50444 416.459 60.6135)
(5.97472 406.576 52.0554)
(-5.50444 416.459 52.0795)
(-12.6793 408.185 51.994)
(-1.20011 398.302 52.0656)
(101.943 399.368 64.7075)
(115.774 416.024 64.7075)
(106.184 423.613 64.7075)
(92.2436 407.721 64.7075)
(106.184 423.613 52.0704)
(92.2436 407.721 51.8747)
(101.943 399.368 52.1639)
(115.774 416.024 52.3152)
(305.551 379.348 55.0614)
(305.551 379.348 62.526)
(294.504 374.348 62.526)
(302.253 367.258 63.54)
(299.746 368.237 63.54)
(302.294 368.366 63.54)
(299.784 369.342 63.54)
(303.689 354.956 62.526)
(314.456 359.848 62.526)
(294.504 374.348 54.6283)
(303.689 354.956 54.5833)
(314.456 359.848 55.0926)
(56.5835 447.485 64.5655)
(66.3176 439.934 64.5655)
(85.2595 462.896 64.5655)
(76.2103 470.721 64.5655)
(85.2595 462.896 51.9867)
(76.2103 470.721 52.0473)
(56.5835 447.485 51.8679)
(66.3176 439.934 51.9089)
(-10.5934 382.733 51.8256)
(-10.5934 382.733 64.7945)
(-3.75883 391.387 64.7945)
(-35.1118 417.096 64.7945)
(-41.7267 409.849 64.7945)
(-3.75883 391.387 51.9173)
(-35.1118 417.096 51.8195)
(-41.7267 409.849 51.6206)
(67.6382 478.171 51.9714)
(67.6382 478.171 64.0325)
(59.0872 485.132 64.0325)
(38.7045 462.764 64.0325)
(48.5125 454.259 64.0325)
(59.0872 485.132 52.0403)
(38.7045 462.764 52.0802)
(48.5125 454.259 51.9939)
(263.781 379.333 68.7545)
(275.17 375.527 68.7545)
(279.844 428.738 68.7545)
(290.589 425.504 68.7545)
(263.781 379.333 53.9033)
(275.17 375.527 53.9911)
(290.589 425.504 54.3273)
(279.844 428.738 54.2905)
(68.6396 425.447 52.077)
(69.4865 396.693 64.8965)
(63.648 401.271 64.8965)
(83.1781 414.057 64.8965)
(68.6396 425.447 64.8965)
(56.3567 409.878 52.3357)
(63.648 401.271 52.0414)
(69.4865 396.693 51.8752)
(83.1781 414.057 51.9191)
(56.3567 409.878 64.8965)
(84.6911 433.793 51.9522)
(93.4382 426.126 64.8765)
(108.71 442.787 64.8765)
(83.5699 447.623 64.8765)
(91.9359 456.796 64.8765)
(84.6911 433.793 64.8765)
(93.4382 426.126 51.9647)
(108.71 442.787 52.2086)
(91.9359 456.796 52.0613)
(83.5699 447.623 51.8978)
(14.5258 410.074 52.2408)
(14.5258 410.074 63.9871)
(26.3702 423.697 63.9871)
(12.3272 435.823 63.9871)
(5.38626 427.834 63.9871)
(6.50693 417.005 63.9871)
(26.3702 423.697 51.986)
(12.3272 435.823 51.9944)
(5.38626 427.834 52.0133)
(6.50693 417.005 51.9404)
(345.712 328.869 71.1331)
(356.498 345.899 71.1331)
(335.145 349.958 71.1331)
(346.874 351.73 71.1331)
(329.345 346.234 71.1331)
(325.98 340.285 71.1331)
(356.498 345.899 56.1659)
(346.874 351.73 55.6816)
(335.145 349.958 55.4972)
(329.345 346.234 55.4326)
(325.98 340.285 55.1111)
(345.712 328.869 55.2537)
(324.538 356.741 70.5438)
(327.915 380.44 70.5438)
(345.535 364.965 70.5438)
(338.655 384.575 70.5438)
(322.219 369.271 70.5438)
(321.773 362.835 70.5438)
(322.219 369.271 55.4057)
(321.773 362.835 55.3388)
(324.538 356.741 55.4296)
(345.535 364.965 55.626)
(338.655 384.575 55.6245)
(327.915 380.44 55.4768)
(371.319 336.885 55.7287)
(361.689 342.949 70.9033)
(353.73 329.73 70.9033)
(373.929 318.593 70.9033)
(352.088 324.651 70.9033)
(370.877 313.287 70.9033)
(374.593 325.336 70.9033)
(371.319 336.885 70.9033)
(361.689 342.949 55.8161)
(353.73 329.73 55.6012)
(352.088 324.651 55.3351)
(370.877 313.287 55.483)
(373.929 318.593 55.6511)
(374.593 325.336 55.7071)
(73.5752 358.457 51.9876)
(63.9576 357.198 64.4265)
(63.0056 352.793 64.4265)
(64.7189 339.69 64.4265)
(67.4695 335.596 64.4265)
(76.4135 336.76 64.4265)
(73.5752 358.457 64.4265)
(63.9576 357.198 51.9375)
(63.0056 352.793 51.9107)
(64.7189 339.69 51.8786)
(67.4695 335.596 51.8964)
(76.4135 336.76 51.9538)
(-5.7114 451.354 51.9911)
(-5.7114 451.354 64.4285)
(-30.5348 422.299 64.4285)
(-9.00727 418.599 64.4285)
(-16.4955 410.306 64.4285)
(1.39498 431.672 64.4285)
(8.37139 439.54 64.4285)
(-30.5348 422.299 51.9712)
(-16.4955 410.306 51.9787)
(-9.00727 418.599 52.0692)
(1.39498 431.672 52.0261)
(8.37139 439.54 52.0456)
(22.7008 403.325 64.8273)
(34.4141 416.734 64.8273)
(30.972 396.59 64.8273)
(40.7914 387.962 64.8273)
(48.5985 381.126 64.8273)
(60.1351 394.219 64.8273)
(30.972 396.59 51.9416)
(40.7914 387.962 52.0312)
(48.5985 381.126 51.9927)
(60.1351 394.219 52.0007)
(34.4141 416.734 51.8668)
(22.7008 403.325 51.8945)
(64.86 376.295 51.8947)
(79.0536 364.562 64.7315)
(71.8289 384.741 64.7315)
(64.86 376.295 64.7315)
(80.4213 394.476 64.7315)
(101.323 390.993 64.7315)
(87.1485 402.626 64.7315)
(79.0536 364.562 51.9719)
(101.323 390.993 52.2026)
(87.1485 402.626 52.013)
(80.4213 394.476 51.9066)
(71.8289 384.741 51.9227)
(-418.75 -207.75 51.7685)
(-437.935 -219.319 51.657)
(-417.126 -200.987 51.657)
(-412.065 -47.7011 51.657)
(-403.596 -120.842 51.657)
(-381.461 -86.8923 51.657)
(-380.503 -81.776 51.657)
(-407.48 -43.0765 51.657)
(-441.212 -215.094 51.657)
(-430.361 -215.144 58.2015)
(-414.835 -206.899 58.2015)
(-410.216 -223.75 51.7995)
(-378.291 -228.854 51.7995)
(-382.182 -221.451 58.2015)
(-371.686 -224.808 51.7995)
(-366.06 -216.088 51.7995)
(-417.911 -220.582 58.2015)
(-420.94 -213.25 58.2015)
(-423.855 -210.599 51.7685)
(-430.336 -215.127 58.2015)
(-378.291 -228.854 44.2553)
(-371.686 -224.808 44.5037)
(-366.06 -216.088 44.5492)
(-403.596 -120.842 44.3321)
(-381.461 -86.8923 44.5744)
(-380.503 -81.776 44.6856)
(-407.48 -43.0765 44.449)
(-412.065 -47.7011 44.368)
(-441.212 -215.094 44.4041)
(-437.935 -219.319 44.4054)
(-389.11 -211.745 58.2015)
(-390.212 -224.044 58.2015)
(-155.998 -381.509 47.6915)
(-169.158 -415.119 58.5672)
(-177.298 -408.813 58.5672)
(-149.525 -389.951 58.5672)
(-150.678 -386.354 58.5672)
(-155.998 -381.509 58.5672)
(-153.162 -383.706 58.5672)
(-177.298 -408.813 47.0863)
(-169.158 -415.119 47.3489)
(-28.9917 -375.87 56.0105)
(-26.8238 -372.769 56.0105)
(-24.1436 -368.937 49.08)
(39.3632 -397.915 49.73)
(39.3632 -397.915 46.8223)
(29.0554 -359.525 53.4295)
(21.2998 -360.181 74.266)
(54.069 -376.89 49.73)
(-20.1088 -328.564 74.266)
(-18.6168 -326.43 48.5636)
(-18.6168 -326.43 49.1695)
(-25.4193 -344.851 77.9115)
(-18.4589 -358.18 74.266)
(-35.1434 -371.601 74.266)
(-44.3475 -363.242 49.1497)
(-35.6268 -366.386 77.3055)
(-38.0295 -369.599 77.3055)
(19.369 -371.332 77.291)
(-14.8253 -360.311 52.85)
(-7.18935 -334.363 53.4295)
(-18.3586 -333.56 77.9115)
(-13.5108 -333.217 77.9115)
(-18.2349 -328.759 74.266)
(-13.2059 -330.186 53.703)
(-4.90135 -344.764 77.9115)
(-26.0593 -344.321 77.7133)
(-40.3874 -367.963 77.3055)
(-33.2222 -369.731 74.266)
(-28.517 -371.849 74.266)
(-6.16116 -338.629 77.9115)
(-24.8673 -367.918 74.266)
(-45.276 -364.571 48.9684)
(-45.276 -364.571 49.1497)
(21.4211 -368.368 77.291)
(18.4047 -367.545 77.291)
(19.7424 -365.744 74.266)
(-40.4634 -364.096 49.1497)
(-39.2623 -364.265 77.3055)
(-17.0248 -327.535 53.703)
(-19.187 -359.239 74.266)
(-39.7713 -365.358 77.3055)
(17.6649 -366.842 77.291)
(-15.1032 -359.222 52.85)
(-8.10884 -361.869 52.85)
(-7.89534 -361.357 52.85)
(-6.26092 -362.265 49.73)
(-7.60469 -365.322 49.73)
(20.4937 -363.479 74.266)
(11.6689 -373.97 74.266)
(13.6215 -371.649 77.291)
(23.4062 -367.362 53.4295)
(-40.5772 -362.582 74.266)
(-10.5086 -363.307 52.85)
(-8.03285 -336.132 74.266)
(-8.20259 -334.905 74.266)
(54.069 -376.89 45.7637)
(-28.9917 -375.87 49.0296)
(-12.6213 -355.445 77.9115)
(-1.65866 -343.623 74.266)
(-145.175 -429.212 47.5605)
(-134.49 -437.083 58.6706)
(-128.865 -429.184 58.6706)
(-145.175 -429.212 58.6706)
(-139.224 -421.494 58.6706)
(-134.49 -437.083 47.6515)
(-128.865 -429.184 47.7655)
(-139.224 -421.494 47.6255)
(-194.957 -415.534 46.3283)
(-148.848 -439.014 58.138)
(-154.633 -446.049 58.138)
(-192.25 -412.508 58.138)
(-188.377 -408.177 58.138)
(-187.529 -414.157 58.138)
(-187.355 -414.368 58.138)
(-194.957 -415.534 57.0238)
(-193.755 -416.444 58.138)
(-184.004 -411.589 58.138)
(-184.712 -411.036 58.138)
(-154.633 -446.049 47.221)
(-148.848 -439.014 47.4846)
(-188.377 -408.177 45.626)
(7.19709 -497.959 48.1529)
(2.80418 -510.025 62.7405)
(7.19709 -497.959 62.7405)
(28.4639 -520.271 62.7405)
(33.1488 -508.586 62.7405)
(2.80418 -510.025 48.2686)
(28.4639 -520.271 48.3332)
(33.1488 -508.586 48.2857)
(-151.651 -403.633 47.5454)
(-124.926 -423.299 58.6777)
(-119.115 -415.462 58.6777)
(-145.84 -395.797 58.6777)
(-151.651 -403.633 58.6777)
(-124.926 -423.299 47.8667)
(-119.115 -415.462 48.0914)
(-145.84 -395.797 47.7888)
(35.3932 457.796 52.0591)
(31.3608 452.997 64.3175)
(31.0067 428.779 64.3175)
(23.4068 444.069 64.3175)
(35.351 433.953 64.3175)
(18.9925 438.804 64.3175)
(47.1354 448.009 64.3175)
(42.7288 442.755 64.3175)
(35.3932 457.796 64.3175)
(31.3608 452.997 52.062)
(23.4068 444.069 52.0797)
(18.9925 438.804 51.9966)
(31.0067 428.779 51.9634)
(35.351 433.953 51.9727)
(42.7288 442.755 51.9857)
(47.1354 448.009 51.9578)
(116.033 468.282 57.9245)
(116.033 468.282 53.4067)
(127.333 498.218 53.5984)
(127.333 498.218 57.9245)
(119.439 484.368 57.9245)
(119.439 484.368 53.5447)
(135.242 457.418 57.9245)
(143.481 471.878 57.9245)
(141.204 490.378 53.6364)
(135.242 457.418 53.492)
(143.481 471.878 53.5711)
(141.204 490.378 57.9245)
(387.918 353.56 58.5055)
(411.182 290.9 58.5055)
(405.759 288.419 58.5055)
(405.759 288.419 55.7023)
(393.253 350.37 58.5055)
(387.918 353.56 56.1156)
(411.182 290.9 55.6037)
(393.253 350.37 55.8112)
(229.647 -10.5287 52.848)
(230.942 -90.5317 58.778)
(229.647 -10.5287 58.778)
(216.933 -83.5957 58.778)
(246.678 -9.23602 58.778)
(216.933 -83.5957 51.9756)
(230.942 -90.5317 52.3261)
(246.678 -9.23602 52.9239)
(-210.692 451.64 61.7435)
(-197.576 449.726 61.7435)
(-193.326 485.93 61.7435)
(-205.987 487.69 61.7435)
(-193.326 485.93 49.7491)
(-205.987 487.69 49.7617)
(-210.692 451.64 49.6625)
(-197.576 449.726 49.7135)
(254.033 281.704 69.931)
(264.449 287.387 69.931)
(267.524 314.256 69.931)
(265.886 295.917 69.931)
(274.984 306.599 69.931)
(248.698 303.745 69.931)
(242.403 293.272 69.931)
(254.033 281.704 54.0463)
(264.449 287.387 54.0686)
(265.886 295.917 53.9952)
(274.984 306.599 54.165)
(267.524 314.256 54.1433)
(248.698 303.745 53.9006)
(242.403 293.272 53.958)
(308.539 313.917 70.1115)
(331.118 317.516 70.1115)
(312.898 325.083 70.1115)
(327.068 306.514 70.1115)
(312.898 325.083 54.5024)
(308.539 313.917 54.5643)
(327.068 306.514 54.8559)
(331.118 317.516 54.743)
(234.398 314.019 68.791)
(227.752 303.159 68.791)
(227.455 357.78 68.791)
(215.95 365.017 68.791)
(197.975 330.965 68.791)
(196.051 318.12 68.791)
(197.975 330.965 53.1078)
(196.051 318.12 53.2016)
(227.752 303.159 53.431)
(234.398 314.019 53.5468)
(227.455 357.78 53.5503)
(215.95 365.017 53.4468)
(273.276 320.069 54.2574)
(283.625 315.413 71.1922)
(296.122 318.229 71.1922)
(298.533 329.72 71.1922)
(287.163 336.438 71.1922)
(276.346 336.09 71.1922)
(273.276 320.069 71.1922)
(283.625 315.413 54.3122)
(296.122 318.229 54.3543)
(298.533 329.72 54.4259)
(287.163 336.438 54.3795)
(276.346 336.09 54.2198)
(293.455 275.353 69.749)
(270.536 270.312 69.749)
(277.748 263.193 69.749)
(284.345 266.605 69.749)
(306.211 288.602 69.749)
(298.745 280.976 69.749)
(308.451 293.608 69.749)
(300.126 301.987 69.749)
(270.536 270.312 54.243)
(277.748 263.193 54.2862)
(284.345 266.605 54.2878)
(293.455 275.353 54.3539)
(298.745 280.976 54.3821)
(306.211 288.602 54.5258)
(308.451 293.608 54.5429)
(300.126 301.987 54.4693)
(380.543 196.375 61.67)
(398.675 184.894 61.67)
(417.777 213.852 61.67)
(399.512 225.785 61.67)
(380.543 196.375 55.3049)
(398.675 184.894 55.3576)
(417.777 213.852 55.5572)
(372.964 266.05 55.7048)
(367.517 257.011 81.1223)
(389.464 252.701 81.1223)
(395.932 264.791 81.1223)
(372.964 266.05 81.1223)
(391.864 258.034 81.1223)
(378.995 274.926 81.1223)
(376.376 270.576 81.1223)
(367.517 257.011 55.4619)
(385.558 246.216 55.4339)
(389.464 252.701 55.4156)
(391.864 258.034 55.4129)
(378.995 274.926 55.5181)
(395.932 264.791 55.5073)
(376.376 270.576 55.5937)
(385.558 246.216 81.1223)
(324.877 236.999 81.115)
(348.15 248.93 81.115)
(316.673 241.824 81.115)
(328.576 235.665 81.115)
(337.271 230.553 81.115)
(331.738 257.824 81.115)
(327.591 260.257 81.115)
(318.125 244.274 81.115)
(320.382 248.086 81.115)
(337.737 255.063 81.115)
(316.673 241.824 55.0495)
(324.877 236.999 55.2682)
(328.576 235.665 55.3028)
(337.271 230.553 55.4237)
(348.15 248.93 55.4366)
(337.737 255.063 55.56)
(327.591 260.257 55.2119)
(331.738 257.824 55.4072)
(345.332 263.27 59.9855)
(362.599 266.237 59.9855)
(362.599 266.237 55.4612)
(370.405 279.152 59.9855)
(348.141 292.511 55.1378)
(348.141 292.511 59.9855)
(334.425 269.823 55.1957)
(345.332 263.27 55.4823)
(370.405 279.152 56.0656)
(334.425 269.823 59.9855)
(440.854 178.729 62.3915)
(441.985 187.83 62.3915)
(444.502 191.21 62.3915)
(452.715 185.163 62.3915)
(445.445 175.352 62.3915)
(441.985 187.83 55.7082)
(444.502 191.21 55.689)
(445.445 175.352 55.7791)
(440.854 178.729 55.6646)
(452.715 185.163 55.7708)
(415.925 215.069 65.828)
(426.164 231.484 65.828)
(415.692 250.841 65.828)
(399.512 225.785 65.828)
(415.692 250.841 55.7798)
(426.164 231.484 55.5941)
(268.429 340.401 54.0747)
(273.627 349.433 70.55)
(268.429 340.401 70.55)
(247.589 368.459 70.55)
(240.667 360.959 70.55)
(273.627 349.433 54.0675)
(240.667 360.959 53.8156)
(247.589 368.459 54.4043)
(172.043 324.531 68.3165)
(178.335 334.815 68.3165)
(137.695 359.184 68.3165)
(131.558 349.149 68.3165)
(172.043 324.531 53.2012)
(178.335 334.815 53.2878)
(137.695 359.184 52.8197)
(131.558 349.149 52.8095)
(160.209 367.883 68.0257)
(162.262 382.521 68.0257)
(175.431 357.734 68.0257)
(187.238 365.866 68.0257)
(181.643 357.523 68.0257)
(155.73 372.786 68.0257)
(155.73 372.786 52.9297)
(160.209 367.883 52.9966)
(175.431 357.734 53.1188)
(181.643 357.523 53.2204)
(187.238 365.866 53.1992)
(162.262 382.521 52.8825)
(203.704 375.546 68.3305)
(194.01 381.598 68.3305)
(213.716 391.443 68.3305)
(164.726 400.715 68.3305)
(178.624 410.137 68.3305)
(190.185 406.159 68.3305)
(200.547 399.679 68.3305)
(198.954 400.675 68.3305)
(175.25 413.39 68.3305)
(175.479 415.356 68.3305)
(174.375 416.047 68.3305)
(164.726 400.715 52.8152)
(174.6 394.546 53.0533)
(194.01 381.598 53.248)
(203.704 375.546 53.3228)
(213.716 391.443 53.3295)
(174.375 416.047 52.8846)
(174.6 394.546 68.3305)
(220.988 386.237 53.5012)
(237.425 376.999 69.093)
(220.988 386.237 69.093)
(214.597 376.684 69.093)
(231.453 366.513 69.093)
(214.597 376.684 53.4737)
(231.453 366.513 54.0351)
(237.425 376.999 53.6737)
(248.235 328.675 53.9652)
(257.075 345.041 69.4477)
(248.235 328.675 69.4477)
(236.194 334.585 69.4477)
(257.075 345.041 53.9982)
(245.598 352.434 53.8359)
(236.194 334.585 53.79)
(245.598 352.434 69.4477)
(195.02 268.287 51.6581)
(167.102 246.768 56.9835)
(189.25 259.188 56.9835)
(164.889 226.795 56.9835)
(158.21 239.914 56.9835)
(157.332 239.237 56.9835)
(198.075 253.021 56.9835)
(165.693 242.146 56.9835)
(165.117 237.702 56.9835)
(156.724 236.959 56.9835)
(179.212 256.102 56.9835)
(192.074 263.573 57.1788)
(170.474 249.367 56.9835)
(162.893 236.925 56.9835)
(179.817 256.304 56.9835)
(193.408 264.525 57.1788)
(179.588 256.392 56.9835)
(195.02 268.287 56.3644)
(193.082 266.794 56.3644)
(196.187 266.861 56.3644)
(203.81 257.554 57.1788)
(199.572 262.728 57.1788)
(174.695 244.514 56.9835)
(203.81 257.554 49.172)
(198.761 253.564 57.1788)
(173.82 295.325 56.5075)
(144.456 252.253 56.5075)
(144.456 252.253 51.7876)
(134.453 264.721 56.5075)
(149.756 267.244 56.5075)
(183.367 283.412 56.5075)
(162.595 266.778 56.5075)
(159.208 265.804 56.5075)
(154.03 274.622 56.5075)
(159.676 264.441 56.5075)
(157.775 275.269 56.5075)
(183.367 283.412 51.4705)
(173.82 295.325 48.7571)
(72.3417 313.998 59.1463)
(47.3451 316.771 59.1463)
(62.3794 303.115 59.1463)
(57.307 327.665 59.1463)
(57.307 327.665 52.0746)
(47.3451 316.771 52.0417)
(62.3794 303.115 52.0291)
(72.3417 313.998 52.2369)
(219.123 239.238 57.1375)
(198.874 204.248 57.1375)
(197.632 207.036 57.1375)
(189.243 206.76 57.1375)
(189.094 196.626 56.1305)
(189.094 196.626 52.0252)
(212.702 215.026 57.1375)
(215.526 217.227 57.1375)
(208.405 211.676 57.1375)
(202.883 213.104 57.1375)
(202.542 207.107 57.1375)