/*--------------------------------*- C++ -*----------------------------------*\
  =========                 |
  \\      /  F ield         | OpenFOAM: The Open Source CFD Toolbox
   \\    /   O peration     | Website:  https://openfoam.org
    \\  /    A nd           | Version:  dev
     \\/     M anipulation  |
\*---------------------------------------------------------------------------*/
FoamFile
{
    version     2.0;
    format      ascii;
    class       dictionary;
    object      blockMeshDict;
}
// * * * * * * * * * * * * * * * * * * * * * * * * * * * * * * * * * * * * * //

#include "userDict"

vertices
(
      ( $/background/min_x $/background/min_y $/background/min_z )
      ( $/background/max_x $/background/min_y $/background/min_z )
      ( $/background/max_x $/background/max_y $/background/min_z )
      ( $/background/min_x $/background/max_y $/background/min_z )

      ( $/background/min_x $/background/min_y $/background/max_z )
      ( $/background/max_x $/background/min_y $/background/max_z )
      ( $/background/max_x $/background/max_y $/background/max_z )
      ( $/background/min_x $/background/max_y $/background/max_z )
);

blocks
(
    hex (0 1 2 3 4 5 6 7)(
        $/background/cells_x
        $/background/cells_y
        $/background/cells_z
    ) 
    simpleGrading ( 1 1 1 )

);

edges
(
);

defaultPatch
{
    name        default;
    type        wall;
}

boundary
(
    // inlet
    // {
    //     type patch;
    //     faces
    //     (
    //         (0 4 7 3)
    //     );
    // }
    //
    // outlet
    // {
    //     type patch;
    //     faces
    //     (
    //         (1 2 6 5)
    //         (3 7 6 2)
    //     );
    // }
    //
    // top
    // {
    //     type symmetry;
    //     inGroups 1(symmetry);
    //     faces
    //     (
    //         (4 5 6 7)
    //     );
    // }
    //
    // ground
    // {
    //     type wall;
    //     faces
    //     (
    //         (0 3 2 1)
    //     );
    // }
    //
    //
    // lateral1
    // {
    //     type symmetry;
    //     inGroups 1(symmetry);
    //     faces
    //     (
    //         (1 5 4 0)
    //     );
    // }
);


// ************************************************************************* //
