/*--------------------------------*- C++ -*----------------------------------*\
  =========                 |
  \\      /  F ield         | OpenFOAM: The Open Source CFD Toolbox
   \\    /   O peration     | Website:  https://openfoam.org
    \\  /    A nd           | Version:  dev
     \\/     M anipulation  |
\*---------------------------------------------------------------------------*/
FoamFile
{
    version     2.0;
    format      ascii;
    class       dictionary;
    object      fvSchemes;
}
// * * * * * * * * * * * * * * * * * * * * * * * * * * * * * * * * * * * * * //

ddtSchemes
{
    default         CrankNicolson 0.9;
}

gradSchemes
{
    default         Gauss linear;

    limited         cellLimited Gauss linear 1;
    grad(U)         $limited;
    grad(k)         $limited;
    grad(epsilon)     $limited;
}

divSchemes
{
    default          none;
    div(phi,U)       Gauss LUST grad(U);
    div(phi,k)       Gauss limitedLinear 1;
    div(phi,omega)   Gauss limitedLinear 1;
    div(phi,v2)      Gauss upwind;
    div((nuEff*dev2(T(grad(U)))))  Gauss linear;
    div(nonlinearStress)  Gauss linear;

}

laplacianSchemes
{
    default         Gauss linear corrected;
}

interpolationSchemes
{
    default         linear;
}

snGradSchemes
{
    default         corrected;
}

wallDist
{
    method meshWave;
}

// ************************************************************************* //
